ptf $

TOUGH2 Analysis                                                                 
ROCKS----1----*----2----*----3----*----4----*----5----*----6----*----7----*----8
ROCK1    3    2600.0       0.5   1.0E-14   1.0E-14   1.0E-14       2.1    1000.0          
       0.0       0.0       2.1       0.0       0.0
    1            0.2       0.1       0.9       0.7
    1            0.0       0.0       0.0
FRAC1    3    2600.0       0.5   1.0E-14   1.0E-14   1.0E-14       2.1    1000.0          
       0.0       0.0       2.1       0.0       0.0
    1            0.2       0.1       0.9       0.7
    1            0.0       0.0       0.0
MATX1    3    2600.0 $MATXPOR$   1.0E-16   1.0E-16   1.0E-16       2.0    1000.0          
       0.0       0.0       2.0       0.0       0.0
    1            0.2       0.1       0.9       0.7
    1            0.0       0.0       1.0

MULTI----1----*----2----*----3----*----4----*----5----*----6----*----7----*----8
    1    2    2    6
START----1----*----2----*----3----*----4----*----5----*----6----*----7----*----8
PARAM----1-MOP* 123456789012345678901234----*----5----*----6----*----7----*----8
 8 29999     100000000000001  03 000   0                                        
       0.0  3.1536E8     100.0       0.0                9.81       4.0       1.0
    1.0E-5       1.0                 1.0       1.0          
                                                                                
SOLVR----1----*----2----*----3----*----4----*----5----*----6----*----7----*----8
3  Z1   O0       0.1    1.0E-6
TIMES----1----*----2----*----3----*----4----*----5----*----6----*----7----*----8
    1    1
     100.0
ELEME----1----*----2----*----3----*----4----*----5----*----6----*----7----*----8
    1          ROCK1 3750000.0       0.0       1.0     125.0     125.0    -570.0
    2          ROCK1 3750000.0       0.0       1.0     375.0     125.0    -570.0
    3          ROCK1 3750000.0       0.0       1.0     625.0     125.0    -570.0
    4          ROCK1 3750000.0       0.0       1.0     875.0     125.0    -570.0
    5          ROCK1 3750000.0       0.0       1.0    1125.0     125.0    -570.0
    6          ROCK1 3750000.0       0.0       1.0    1375.0     125.0    -570.0
    7          ROCK1 3750000.0       0.0       1.0    1625.0     125.0    -570.0
    8          ROCK1 3750000.0       0.0       1.0    1875.0     125.0    -570.0
    9          ROCK1 3750000.0       0.0       1.0    2125.0     125.0    -570.0
   10          ROCK1 3750000.0       0.0       1.0    2375.0     125.0    -570.0
   11          ROCK1 3750000.0       0.0       1.0    2625.0     125.0    -570.0
   12          ROCK1 3750000.0       0.0       1.0    2875.0     125.0    -570.0
   13          ROCK1 3750000.0       0.0       1.0    3125.0     125.0    -570.0
   14          ROCK1 3750000.0       0.0       1.0    3375.0     125.0    -570.0
   15          ROCK1 3750000.0       0.0       1.0    3625.0     125.0    -570.0
   16          ROCK1 3750000.0       0.0       1.0    3875.0     125.0    -570.0
   17          ROCK1 3750000.0       0.0       1.0    4125.0     125.0    -570.0
   18          ROCK1 3750000.0       0.0       1.0    4375.0     125.0    -570.0
   19          ROCK1 3750000.0       0.0       1.0    4625.0     125.0    -570.0
   20          ROCK1 3750000.0       0.0       1.0    4875.0     125.0    -570.0
   21          ROCK1 3750000.0       0.0       1.0     125.0     375.0    -570.0
   22          ROCK1 3750000.0       0.0       1.0     375.0     375.0    -570.0
   23          ROCK1 3750000.0       0.0       1.0     625.0     375.0    -570.0
   24          ROCK1 3750000.0       0.0       1.0     875.0     375.0    -570.0
   25          ROCK1 3750000.0       0.0       1.0    1125.0     375.0    -570.0
   26          ROCK1 3750000.0       0.0       1.0    1375.0     375.0    -570.0
   27          ROCK1 3750000.0       0.0       1.0    1625.0     375.0    -570.0
   28          ROCK1 3750000.0       0.0       1.0    1875.0     375.0    -570.0
   29          ROCK1 3750000.0       0.0       1.0    2125.0     375.0    -570.0
   30          ROCK1 3750000.0       0.0       1.0    2375.0     375.0    -570.0
   31          ROCK1 3750000.0       0.0       1.0    2625.0     375.0    -570.0
   32          ROCK1 3750000.0       0.0       1.0    2875.0     375.0    -570.0
   33          ROCK1 3750000.0       0.0       1.0    3125.0     375.0    -570.0
   34          ROCK1 3750000.0       0.0       1.0    3375.0     375.0    -570.0
   35          ROCK1 3750000.0       0.0       1.0    3625.0     375.0    -570.0
   36          ROCK1 3750000.0       0.0       1.0    3875.0     375.0    -570.0
   37          ROCK1 3750000.0       0.0       1.0    4125.0     375.0    -570.0
   38          ROCK1 3750000.0       0.0       1.0    4375.0     375.0    -570.0
   39          ROCK1 3750000.0       0.0       1.0    4625.0     375.0    -570.0
   40          ROCK1 3750000.0       0.0       1.0    4875.0     375.0    -570.0
   41          ROCK1 3750000.0       0.0       1.0     125.0     625.0    -570.0
   42          ROCK1 3750000.0       0.0       1.0     375.0     625.0    -570.0
   43          ROCK1 3750000.0       0.0       1.0     625.0     625.0    -570.0
   44          ROCK1 3750000.0       0.0       1.0     875.0     625.0    -570.0
   45          ROCK1 3750000.0       0.0       1.0    1125.0     625.0    -570.0
   46          ROCK1 3750000.0       0.0       1.0    1375.0     625.0    -570.0
   47          ROCK1 3750000.0       0.0       1.0    1625.0     625.0    -570.0
   48          ROCK1 3750000.0       0.0       1.0    1875.0     625.0    -570.0
   49          ROCK1 3750000.0       0.0       1.0    2125.0     625.0    -570.0
   50          ROCK1 3750000.0       0.0       1.0    2375.0     625.0    -570.0
   51          ROCK1 3750000.0       0.0       1.0    2625.0     625.0    -570.0
   52          ROCK1 3750000.0       0.0       1.0    2875.0     625.0    -570.0
   53          ROCK1 3750000.0       0.0       1.0    3125.0     625.0    -570.0
   54          ROCK1 3750000.0       0.0       1.0    3375.0     625.0    -570.0
   55          ROCK1 3750000.0       0.0       1.0    3625.0     625.0    -570.0
   56          ROCK1 3750000.0       0.0       1.0    3875.0     625.0    -570.0
   57          ROCK1 3750000.0       0.0       1.0    4125.0     625.0    -570.0
   58          ROCK1 3750000.0       0.0       1.0    4375.0     625.0    -570.0
   59          ROCK1 3750000.0       0.0       1.0    4625.0     625.0    -570.0
   60          ROCK1 3750000.0       0.0       1.0    4875.0     625.0    -570.0
   61          ROCK1 3750000.0       0.0       1.0     125.0     875.0    -570.0
   62          ROCK1 3750000.0       0.0       1.0     375.0     875.0    -570.0
   63          ROCK1 3750000.0       0.0       1.0     625.0     875.0    -570.0
   64          ROCK1 3750000.0       0.0       1.0     875.0     875.0    -570.0
   65          ROCK1 3750000.0       0.0       1.0    1125.0     875.0    -570.0
   66          ROCK1 3750000.0       0.0       1.0    1375.0     875.0    -570.0
   67          ROCK1 3750000.0       0.0       1.0    1625.0     875.0    -570.0
   68          ROCK1 3750000.0       0.0       1.0    1875.0     875.0    -570.0
   69          ROCK1 3750000.0       0.0       1.0    2125.0     875.0    -570.0
   70          ROCK1 3750000.0       0.0       1.0    2375.0     875.0    -570.0
   71          ROCK1 3750000.0       0.0       1.0    2625.0     875.0    -570.0
   72          ROCK1 3750000.0       0.0       1.0    2875.0     875.0    -570.0
   73          ROCK1 3750000.0       0.0       1.0    3125.0     875.0    -570.0
   74          ROCK1 3750000.0       0.0       1.0    3375.0     875.0    -570.0
   75          ROCK1 3750000.0       0.0       1.0    3625.0     875.0    -570.0
   76          ROCK1 3750000.0       0.0       1.0    3875.0     875.0    -570.0
   77          ROCK1 3750000.0       0.0       1.0    4125.0     875.0    -570.0
   78          ROCK1 3750000.0       0.0       1.0    4375.0     875.0    -570.0
   79          ROCK1 3750000.0       0.0       1.0    4625.0     875.0    -570.0
   80          ROCK1 3750000.0       0.0       1.0    4875.0     875.0    -570.0
   81          ROCK1 3750000.0       0.0       1.0     125.0    1125.0    -570.0
   82          ROCK1 3750000.0       0.0       1.0     375.0    1125.0    -570.0
   83          ROCK1 3750000.0       0.0       1.0     625.0    1125.0    -570.0
   84          ROCK1 3750000.0       0.0       1.0     875.0    1125.0    -570.0
   85          ROCK1 3750000.0       0.0       1.0    1125.0    1125.0    -570.0
   86          ROCK1 3750000.0       0.0       1.0    1375.0    1125.0    -570.0
   87          ROCK1 3750000.0       0.0       1.0    1625.0    1125.0    -570.0
   88          ROCK1 3750000.0       0.0       1.0    1875.0    1125.0    -570.0
   89          ROCK1 3750000.0       0.0       1.0    2125.0    1125.0    -570.0
   90          ROCK1 3750000.0       0.0       1.0    2375.0    1125.0    -570.0
   91          ROCK1 3750000.0       0.0       1.0    2625.0    1125.0    -570.0
   92          ROCK1 3750000.0       0.0       1.0    2875.0    1125.0    -570.0
   93          ROCK1 3750000.0       0.0       1.0    3125.0    1125.0    -570.0
   94          ROCK1 3750000.0       0.0       1.0    3375.0    1125.0    -570.0
   95          ROCK1 3750000.0       0.0       1.0    3625.0    1125.0    -570.0
   96          ROCK1 3750000.0       0.0       1.0    3875.0    1125.0    -570.0
   97          ROCK1 3750000.0       0.0       1.0    4125.0    1125.0    -570.0
   98          ROCK1 3750000.0       0.0       1.0    4375.0    1125.0    -570.0
   99          ROCK1 3750000.0       0.0       1.0    4625.0    1125.0    -570.0
  1 0          ROCK1 3750000.0       0.0       1.0    4875.0    1125.0    -570.0
  1 1          ROCK1 3750000.0       0.0       1.0     125.0    1375.0    -570.0
  1 2          ROCK1 3750000.0       0.0       1.0     375.0    1375.0    -570.0
  1 3          ROCK1 3750000.0       0.0       1.0     625.0    1375.0    -570.0
  1 4          ROCK1 3750000.0       0.0       1.0     875.0    1375.0    -570.0
  1 5          ROCK1 3750000.0       0.0       1.0    1125.0    1375.0    -570.0
  1 6          ROCK1 3750000.0       0.0       1.0    1375.0    1375.0    -570.0
  1 7          ROCK1 3750000.0       0.0       1.0    1625.0    1375.0    -570.0
  1 8          ROCK1 3750000.0       0.0       1.0    1875.0    1375.0    -570.0
  1 9          ROCK1 3750000.0       0.0       1.0    2125.0    1375.0    -570.0
  110          ROCK1 3750000.0       0.0       1.0    2375.0    1375.0    -570.0
  111          ROCK1 3750000.0       0.0       1.0    2625.0    1375.0    -570.0
  112          ROCK1 3750000.0       0.0       1.0    2875.0    1375.0    -570.0
  113          ROCK1 3750000.0       0.0       1.0    3125.0    1375.0    -570.0
  114          ROCK1 3750000.0       0.0       1.0    3375.0    1375.0    -570.0
  115          ROCK1 3750000.0       0.0       1.0    3625.0    1375.0    -570.0
  116          ROCK1 3750000.0       0.0       1.0    3875.0    1375.0    -570.0
  117          ROCK1 3750000.0       0.0       1.0    4125.0    1375.0    -570.0
  118          ROCK1 3750000.0       0.0       1.0    4375.0    1375.0    -570.0
  119          ROCK1 3750000.0       0.0       1.0    4625.0    1375.0    -570.0
  120          ROCK1 3750000.0       0.0       1.0    4875.0    1375.0    -570.0
  121          ROCK1 3750000.0       0.0       1.0     125.0    1625.0    -570.0
  122          ROCK1 3750000.0       0.0       1.0     375.0    1625.0    -570.0
  123          ROCK1 3750000.0       0.0       1.0     625.0    1625.0    -570.0
  124          ROCK1 3750000.0       0.0       1.0     875.0    1625.0    -570.0
  125          ROCK1 3750000.0       0.0       1.0    1125.0    1625.0    -570.0
  126          ROCK1 3750000.0       0.0       1.0    1375.0    1625.0    -570.0
  127          ROCK1 3750000.0       0.0       1.0    1625.0    1625.0    -570.0
  128          ROCK1 3750000.0       0.0       1.0    1875.0    1625.0    -570.0
  129          ROCK1 3750000.0       0.0       1.0    2125.0    1625.0    -570.0
  130          ROCK1 3750000.0       0.0       1.0    2375.0    1625.0    -570.0
  131          ROCK1 3750000.0       0.0       1.0    2625.0    1625.0    -570.0
  132          ROCK1 3750000.0       0.0       1.0    2875.0    1625.0    -570.0
  133          ROCK1 3750000.0       0.0       1.0    3125.0    1625.0    -570.0
  134          ROCK1 3750000.0       0.0       1.0    3375.0    1625.0    -570.0
  135          ROCK1 3750000.0       0.0       1.0    3625.0    1625.0    -570.0
  136          ROCK1 3750000.0       0.0       1.0    3875.0    1625.0    -570.0
  137          ROCK1 3750000.0       0.0       1.0    4125.0    1625.0    -570.0
  138          ROCK1 3750000.0       0.0       1.0    4375.0    1625.0    -570.0
  139          ROCK1 3750000.0       0.0       1.0    4625.0    1625.0    -570.0
  140          ROCK1 3750000.0       0.0       1.0    4875.0    1625.0    -570.0
  141          ROCK1 3750000.0       0.0       1.0     125.0    1875.0    -570.0
  142          ROCK1 3750000.0       0.0       1.0     375.0    1875.0    -570.0
  143          ROCK1 3750000.0       0.0       1.0     625.0    1875.0    -570.0
  144          ROCK1 3750000.0       0.0       1.0     875.0    1875.0    -570.0
  145          ROCK1 3750000.0       0.0       1.0    1125.0    1875.0    -570.0
  146          ROCK1 3750000.0       0.0       1.0    1375.0    1875.0    -570.0
  147          ROCK1 3750000.0       0.0       1.0    1625.0    1875.0    -570.0
  148          ROCK1 3750000.0       0.0       1.0    1875.0    1875.0    -570.0
  149          ROCK1 3750000.0       0.0       1.0    2125.0    1875.0    -570.0
  150          ROCK1 3750000.0       0.0       1.0    2375.0    1875.0    -570.0
  151          ROCK1 3750000.0       0.0       1.0    2625.0    1875.0    -570.0
  152          ROCK1 3750000.0       0.0       1.0    2875.0    1875.0    -570.0
  153          ROCK1 3750000.0       0.0       1.0    3125.0    1875.0    -570.0
  154          ROCK1 3750000.0       0.0       1.0    3375.0    1875.0    -570.0
  155          ROCK1 3750000.0       0.0       1.0    3625.0    1875.0    -570.0
  156          ROCK1 3750000.0       0.0       1.0    3875.0    1875.0    -570.0
  157          ROCK1 3750000.0       0.0       1.0    4125.0    1875.0    -570.0
  158          ROCK1 3750000.0       0.0       1.0    4375.0    1875.0    -570.0
  159          ROCK1 3750000.0       0.0       1.0    4625.0    1875.0    -570.0
  160          ROCK1 3750000.0       0.0       1.0    4875.0    1875.0    -570.0
  161          ROCK1 3750000.0       0.0       1.0     125.0    2125.0    -570.0
  162          ROCK1 3750000.0       0.0       1.0     375.0    2125.0    -570.0
  163          ROCK1 3750000.0       0.0       1.0     625.0    2125.0    -570.0
  164          ROCK1 3750000.0       0.0       1.0     875.0    2125.0    -570.0
  165          ROCK1 3750000.0       0.0       1.0    1125.0    2125.0    -570.0
  166          ROCK1 3750000.0       0.0       1.0    1375.0    2125.0    -570.0
  167          ROCK1 3750000.0       0.0       1.0    1625.0    2125.0    -570.0
  168          ROCK1 3750000.0       0.0       1.0    1875.0    2125.0    -570.0
  169          ROCK1 3750000.0       0.0       1.0    2125.0    2125.0    -570.0
  170          ROCK1 3750000.0       0.0       1.0    2375.0    2125.0    -570.0
  171          ROCK1 3750000.0       0.0       1.0    2625.0    2125.0    -570.0
  172          ROCK1 3750000.0       0.0       1.0    2875.0    2125.0    -570.0
  173          ROCK1 3750000.0       0.0       1.0    3125.0    2125.0    -570.0
  174          ROCK1 3750000.0       0.0       1.0    3375.0    2125.0    -570.0
  175          ROCK1 3750000.0       0.0       1.0    3625.0    2125.0    -570.0
  176          ROCK1 3750000.0       0.0       1.0    3875.0    2125.0    -570.0
  177          ROCK1 3750000.0       0.0       1.0    4125.0    2125.0    -570.0
  178          ROCK1 3750000.0       0.0       1.0    4375.0    2125.0    -570.0
  179          ROCK1 3750000.0       0.0       1.0    4625.0    2125.0    -570.0
  180          ROCK1 3750000.0       0.0       1.0    4875.0    2125.0    -570.0
  181          ROCK1 3750000.0       0.0       1.0     125.0    2375.0    -570.0
  182          ROCK1 3750000.0       0.0       1.0     375.0    2375.0    -570.0
  183          ROCK1 3750000.0       0.0       1.0     625.0    2375.0    -570.0
  184          ROCK1 3750000.0       0.0       1.0     875.0    2375.0    -570.0
  185          ROCK1 3750000.0       0.0       1.0    1125.0    2375.0    -570.0
  186          ROCK1 3750000.0       0.0       1.0    1375.0    2375.0    -570.0
  187          ROCK1 3750000.0       0.0       1.0    1625.0    2375.0    -570.0
  188          ROCK1 3750000.0       0.0       1.0    1875.0    2375.0    -570.0
  189          ROCK1 3750000.0       0.0       1.0    2125.0    2375.0    -570.0
  190          ROCK1 3750000.0       0.0       1.0    2375.0    2375.0    -570.0
  191          ROCK1 3750000.0       0.0       1.0    2625.0    2375.0    -570.0
  192          ROCK1 3750000.0       0.0       1.0    2875.0    2375.0    -570.0
  193          ROCK1 3750000.0       0.0       1.0    3125.0    2375.0    -570.0
  194          ROCK1 3750000.0       0.0       1.0    3375.0    2375.0    -570.0
  195          ROCK1 3750000.0       0.0       1.0    3625.0    2375.0    -570.0
  196          ROCK1 3750000.0       0.0       1.0    3875.0    2375.0    -570.0
  197          ROCK1 3750000.0       0.0       1.0    4125.0    2375.0    -570.0
  198          ROCK1 3750000.0       0.0       1.0    4375.0    2375.0    -570.0
  199          ROCK1 3750000.0       0.0       1.0    4625.0    2375.0    -570.0
  2 0          ROCK1 3750000.0       0.0       1.0    4875.0    2375.0    -570.0
  2 1          ROCK1 3750000.0       0.0       1.0     125.0    2625.0    -570.0
  2 2          ROCK1 3750000.0       0.0       1.0     375.0    2625.0    -570.0
  2 3          ROCK1 3750000.0       0.0       1.0     625.0    2625.0    -570.0
  2 4          ROCK1 3750000.0       0.0       1.0     875.0    2625.0    -570.0
  2 5          ROCK1 3750000.0       0.0       1.0    1125.0    2625.0    -570.0
  2 6          ROCK1 3750000.0       0.0       1.0    1375.0    2625.0    -570.0
  2 7          ROCK1 3750000.0       0.0       1.0    1625.0    2625.0    -570.0
  2 8          ROCK1 3750000.0       0.0       1.0    1875.0    2625.0    -570.0
  2 9          ROCK1 3750000.0       0.0       1.0    2125.0    2625.0    -570.0
  210          ROCK1 3750000.0       0.0       1.0    2375.0    2625.0    -570.0
  211          ROCK1 3750000.0       0.0       1.0    2625.0    2625.0    -570.0
  212          ROCK1 3750000.0       0.0       1.0    2875.0    2625.0    -570.0
  213          ROCK1 3750000.0       0.0       1.0    3125.0    2625.0    -570.0
  214          ROCK1 3750000.0       0.0       1.0    3375.0    2625.0    -570.0
  215          ROCK1 3750000.0       0.0       1.0    3625.0    2625.0    -570.0
  216          ROCK1 3750000.0       0.0       1.0    3875.0    2625.0    -570.0
  217          ROCK1 3750000.0       0.0       1.0    4125.0    2625.0    -570.0
  218          ROCK1 3750000.0       0.0       1.0    4375.0    2625.0    -570.0
  219          ROCK1 3750000.0       0.0       1.0    4625.0    2625.0    -570.0
  220          ROCK1 3750000.0       0.0       1.0    4875.0    2625.0    -570.0
  221          ROCK1 3750000.0       0.0       1.0     125.0    2875.0    -570.0
  222          ROCK1 3750000.0       0.0       1.0     375.0    2875.0    -570.0
  223          ROCK1 3750000.0       0.0       1.0     625.0    2875.0    -570.0
  224          ROCK1 3750000.0       0.0       1.0     875.0    2875.0    -570.0
  225          ROCK1 3750000.0       0.0       1.0    1125.0    2875.0    -570.0
  226          ROCK1 3750000.0       0.0       1.0    1375.0    2875.0    -570.0
  227          ROCK1 3750000.0       0.0       1.0    1625.0    2875.0    -570.0
  228          ROCK1 3750000.0       0.0       1.0    1875.0    2875.0    -570.0
  229          ROCK1 3750000.0       0.0       1.0    2125.0    2875.0    -570.0
  230          ROCK1 3750000.0       0.0       1.0    2375.0    2875.0    -570.0
  231          ROCK1 3750000.0       0.0       1.0    2625.0    2875.0    -570.0
  232          ROCK1 3750000.0       0.0       1.0    2875.0    2875.0    -570.0
  233          ROCK1 3750000.0       0.0       1.0    3125.0    2875.0    -570.0
  234          ROCK1 3750000.0       0.0       1.0    3375.0    2875.0    -570.0
  235          ROCK1 3750000.0       0.0       1.0    3625.0    2875.0    -570.0
  236          ROCK1 3750000.0       0.0       1.0    3875.0    2875.0    -570.0
  237          ROCK1 3750000.0       0.0       1.0    4125.0    2875.0    -570.0
  238          ROCK1 3750000.0       0.0       1.0    4375.0    2875.0    -570.0
  239          ROCK1 3750000.0       0.0       1.0    4625.0    2875.0    -570.0
  240          ROCK1 3750000.0       0.0       1.0    4875.0    2875.0    -570.0
  241          ROCK1 3750000.0       0.0       1.0     125.0    3125.0    -570.0
  242          ROCK1 3750000.0       0.0       1.0     375.0    3125.0    -570.0
  243          ROCK1 3750000.0       0.0       1.0     625.0    3125.0    -570.0
  244          ROCK1 3750000.0       0.0       1.0     875.0    3125.0    -570.0
  245          ROCK1 3750000.0       0.0       1.0    1125.0    3125.0    -570.0
  246          ROCK1 3750000.0       0.0       1.0    1375.0    3125.0    -570.0
  247          ROCK1 3750000.0       0.0       1.0    1625.0    3125.0    -570.0
  248          ROCK1 3750000.0       0.0       1.0    1875.0    3125.0    -570.0
  249          ROCK1 3750000.0       0.0       1.0    2125.0    3125.0    -570.0
  250          ROCK1 3750000.0       0.0       1.0    2375.0    3125.0    -570.0
  251          ROCK1 3750000.0       0.0       1.0    2625.0    3125.0    -570.0
  252          ROCK1 3750000.0       0.0       1.0    2875.0    3125.0    -570.0
  253          ROCK1 3750000.0       0.0       1.0    3125.0    3125.0    -570.0
  254          ROCK1 3750000.0       0.0       1.0    3375.0    3125.0    -570.0
  255          ROCK1 3750000.0       0.0       1.0    3625.0    3125.0    -570.0
  256          ROCK1 3750000.0       0.0       1.0    3875.0    3125.0    -570.0
  257          ROCK1 3750000.0       0.0       1.0    4125.0    3125.0    -570.0
  258          ROCK1 3750000.0       0.0       1.0    4375.0    3125.0    -570.0
  259          ROCK1 3750000.0       0.0       1.0    4625.0    3125.0    -570.0
  260          ROCK1 3750000.0       0.0       1.0    4875.0    3125.0    -570.0
  261          ROCK1 3750000.0       0.0       1.0     125.0    3375.0    -570.0
  262          ROCK1 3750000.0       0.0       1.0     375.0    3375.0    -570.0
  263          ROCK1 3750000.0       0.0       1.0     625.0    3375.0    -570.0
  264          ROCK1 3750000.0       0.0       1.0     875.0    3375.0    -570.0
  265          ROCK1 3750000.0       0.0       1.0    1125.0    3375.0    -570.0
  266          ROCK1 3750000.0       0.0       1.0    1375.0    3375.0    -570.0
  267          ROCK1 3750000.0       0.0       1.0    1625.0    3375.0    -570.0
  268          ROCK1 3750000.0       0.0       1.0    1875.0    3375.0    -570.0
  269          ROCK1 3750000.0       0.0       1.0    2125.0    3375.0    -570.0
  270          ROCK1 3750000.0       0.0       1.0    2375.0    3375.0    -570.0
  271          ROCK1 3750000.0       0.0       1.0    2625.0    3375.0    -570.0
  272          ROCK1 3750000.0       0.0       1.0    2875.0    3375.0    -570.0
  273          ROCK1 3750000.0       0.0       1.0    3125.0    3375.0    -570.0
  274          ROCK1 3750000.0       0.0       1.0    3375.0    3375.0    -570.0
  275          ROCK1 3750000.0       0.0       1.0    3625.0    3375.0    -570.0
  276          ROCK1 3750000.0       0.0       1.0    3875.0    3375.0    -570.0
  277          ROCK1 3750000.0       0.0       1.0    4125.0    3375.0    -570.0
  278          ROCK1 3750000.0       0.0       1.0    4375.0    3375.0    -570.0
  279          ROCK1 3750000.0       0.0       1.0    4625.0    3375.0    -570.0
  280          ROCK1 3750000.0       0.0       1.0    4875.0    3375.0    -570.0
  281          ROCK1 3750000.0       0.0       1.0     125.0    3625.0    -570.0
  282          ROCK1 3750000.0       0.0       1.0     375.0    3625.0    -570.0
  283          ROCK1 3750000.0       0.0       1.0     625.0    3625.0    -570.0
  284          ROCK1 3750000.0       0.0       1.0     875.0    3625.0    -570.0
  285          ROCK1 3750000.0       0.0       1.0    1125.0    3625.0    -570.0
  286          ROCK1 3750000.0       0.0       1.0    1375.0    3625.0    -570.0
  287          ROCK1 3750000.0       0.0       1.0    1625.0    3625.0    -570.0
  288          ROCK1 3750000.0       0.0       1.0    1875.0    3625.0    -570.0
  289          ROCK1 3750000.0       0.0       1.0    2125.0    3625.0    -570.0
  290          ROCK1 3750000.0       0.0       1.0    2375.0    3625.0    -570.0
  291          ROCK1 3750000.0       0.0       1.0    2625.0    3625.0    -570.0
  292          ROCK1 3750000.0       0.0       1.0    2875.0    3625.0    -570.0
  293          ROCK1 3750000.0       0.0       1.0    3125.0    3625.0    -570.0
  294          ROCK1 3750000.0       0.0       1.0    3375.0    3625.0    -570.0
  295          ROCK1 3750000.0       0.0       1.0    3625.0    3625.0    -570.0
  296          ROCK1 3750000.0       0.0       1.0    3875.0    3625.0    -570.0
  297          ROCK1 3750000.0       0.0       1.0    4125.0    3625.0    -570.0
  298          ROCK1 3750000.0       0.0       1.0    4375.0    3625.0    -570.0
  299          ROCK1 3750000.0       0.0       1.0    4625.0    3625.0    -570.0
  3 0          ROCK1 3750000.0       0.0       1.0    4875.0    3625.0    -570.0
  3 1          ROCK1 3750000.0       0.0       1.0     125.0    3875.0    -570.0
  3 2          ROCK1 3750000.0       0.0       1.0     375.0    3875.0    -570.0
  3 3          ROCK1 3750000.0       0.0       1.0     625.0    3875.0    -570.0
  3 4          ROCK1 3750000.0       0.0       1.0     875.0    3875.0    -570.0
  3 5          ROCK1 3750000.0       0.0       1.0    1125.0    3875.0    -570.0
  3 6          ROCK1 3750000.0       0.0       1.0    1375.0    3875.0    -570.0
  3 7          ROCK1 3750000.0       0.0       1.0    1625.0    3875.0    -570.0
  3 8          ROCK1 3750000.0       0.0       1.0    1875.0    3875.0    -570.0
  3 9          ROCK1 3750000.0       0.0       1.0    2125.0    3875.0    -570.0
  310          ROCK1 3750000.0       0.0       1.0    2375.0    3875.0    -570.0
  311          ROCK1 3750000.0       0.0       1.0    2625.0    3875.0    -570.0
  312          ROCK1 3750000.0       0.0       1.0    2875.0    3875.0    -570.0
  313          ROCK1 3750000.0       0.0       1.0    3125.0    3875.0    -570.0
  314          ROCK1 3750000.0       0.0       1.0    3375.0    3875.0    -570.0
  315          ROCK1 3750000.0       0.0       1.0    3625.0    3875.0    -570.0
  316          ROCK1 3750000.0       0.0       1.0    3875.0    3875.0    -570.0
  317          ROCK1 3750000.0       0.0       1.0    4125.0    3875.0    -570.0
  318          ROCK1 3750000.0       0.0       1.0    4375.0    3875.0    -570.0
  319          ROCK1 3750000.0       0.0       1.0    4625.0    3875.0    -570.0
  320          ROCK1 3750000.0       0.0       1.0    4875.0    3875.0    -570.0
  321          ROCK1 3750000.0       0.0       1.0     125.0    4125.0    -570.0
  322          ROCK1 3750000.0       0.0       1.0     375.0    4125.0    -570.0
  323          ROCK1 3750000.0       0.0       1.0     625.0    4125.0    -570.0
  324          ROCK1 3750000.0       0.0       1.0     875.0    4125.0    -570.0
  325          ROCK1 3750000.0       0.0       1.0    1125.0    4125.0    -570.0
  326          ROCK1 3750000.0       0.0       1.0    1375.0    4125.0    -570.0
  327          ROCK1 3750000.0       0.0       1.0    1625.0    4125.0    -570.0
  328          ROCK1 3750000.0       0.0       1.0    1875.0    4125.0    -570.0
  329          ROCK1 3750000.0       0.0       1.0    2125.0    4125.0    -570.0
  330          ROCK1 3750000.0       0.0       1.0    2375.0    4125.0    -570.0
  331          ROCK1 3750000.0       0.0       1.0    2625.0    4125.0    -570.0
  332          ROCK1 3750000.0       0.0       1.0    2875.0    4125.0    -570.0
  333          ROCK1 3750000.0       0.0       1.0    3125.0    4125.0    -570.0
  334          ROCK1 3750000.0       0.0       1.0    3375.0    4125.0    -570.0
  335          ROCK1 3750000.0       0.0       1.0    3625.0    4125.0    -570.0
  336          ROCK1 3750000.0       0.0       1.0    3875.0    4125.0    -570.0
  337          ROCK1 3750000.0       0.0       1.0    4125.0    4125.0    -570.0
  338          ROCK1 3750000.0       0.0       1.0    4375.0    4125.0    -570.0
  339          ROCK1 3750000.0       0.0       1.0    4625.0    4125.0    -570.0
  340          ROCK1 3750000.0       0.0       1.0    4875.0    4125.0    -570.0
  341          ROCK1 3750000.0       0.0       1.0     125.0    4375.0    -570.0
  342          ROCK1 3750000.0       0.0       1.0     375.0    4375.0    -570.0
  343          ROCK1 3750000.0       0.0       1.0     625.0    4375.0    -570.0
  344          ROCK1 3750000.0       0.0       1.0     875.0    4375.0    -570.0